REMARK  Name = ZINC000001149132
REMARK                            x       y       z     vdW  Elec       q    Type
REMARK                         _______ _______ _______ _____ _____    ______ ____
ROOT
ATOM      1  C   LIG    1       -1.389  -4.774   4.303  0.00  0.00    +0.580 C 
ATOM      2  N   LIG    1       -1.499  -5.978   4.899  0.00  0.00    -0.710 N 
ATOM      3  H   LIG    1       -2.099  -6.646   4.534  0.00  0.00    +0.410 HD
ATOM      4  O   LIG    1       -0.636  -3.935   4.761  0.00  0.00    -0.540 OA
ENDROOT
BRANCH   1  10
ATOM      5  C   LIG    1       -2.030  -3.241   2.441  0.00  0.00    +0.220 A 
ATOM      6  C   LIG    1       -2.781  -2.970   1.306  0.00  0.00    +0.010 A 
ATOM      7  C   LIG    1       -3.676  -3.906   0.829  0.00  0.00    +0.070 A 
ATOM      8  C   LIG    1       -3.833  -5.120   1.476  0.00  0.00    -0.020 A 
ATOM      9  C   LIG    1       -3.096  -5.407   2.605  0.00  0.00    +0.070 A 
ATOM     10  C   LIG    1       -2.181  -4.473   3.096  0.00  0.00    -0.180 A 
BRANCH   5  12
ATOM     11  C   LIG    1       -0.532  -1.437   2.075  0.00  0.00    +0.560 C 
ATOM     12  N   LIG    1       -1.126  -2.298   2.924  0.00  0.00    -0.660 N 
ATOM     13  H   LIG    1       -0.924  -2.261   3.872  0.00  0.00    +0.430 HD
ATOM     14  O   LIG    1       -0.716  -1.540   0.877  0.00  0.00    -0.520 OA
BRANCH  11  19
ATOM     15  C   LIG    1        2.875   2.727   4.114  0.00  0.00    +0.100 C 
ATOM     16  C   LIG    1        1.982   1.637   3.580  0.00  0.00    -0.050 A 
ATOM     17  C   LIG    1        1.775   1.522   2.217  0.00  0.00    +0.000 A 
ATOM     18  C   LIG    1        0.959   0.526   1.721  0.00  0.00    +0.090 A 
ATOM     19  C   LIG    1        0.343  -0.367   2.599  0.00  0.00    -0.150 A 
ATOM     20  C   LIG    1        0.556  -0.246   3.973  0.00  0.00    +0.060 A 
ATOM     21  C   LIG    1        1.379   0.751   4.455  0.00  0.00    +0.000 A 
ENDBRANCH  11  19
ENDBRANCH   5  12
ENDBRANCH   1  10
BRANCH   2  22
ATOM     22  C   LIG    1       -0.712  -6.277   6.098  0.00  0.00    +0.260 C 
BRANCH  22  23
ATOM     23  C   LIG    1       -1.407  -7.345   6.902  0.00  0.00    +0.520 C 
ATOM     24  N   LIG    1       -1.058  -7.556   8.186  0.00  0.00    -0.670 N 
ATOM     25  H   LIG    1       -0.393  -6.989   8.608  0.00  0.00    +0.410 HD
ATOM     26  O   LIG    1       -2.281  -8.014   6.393  0.00  0.00    -0.510 OA
BRANCH  24  27
ATOM     27  C   LIG    1       -1.654  -8.594   8.912  0.00  0.00    +0.140 A 
ATOM     28  C   LIG    1       -1.984  -9.785   8.279  0.00  0.00    +0.010 A 
ATOM     29  C   LIG    1       -2.572 -10.807   8.998  0.00  0.00    +0.030 A 
ATOM     30  C   LIG    1       -2.833 -10.645  10.346  0.00  0.00    -0.010 A 
ATOM     31  C   LIG    1       -2.506  -9.460  10.979  0.00  0.00    +0.030 A 
ATOM     32  C   LIG    1       -1.911  -8.437  10.267  0.00  0.00    -0.010 A 
ENDBRANCH  24  27
ENDBRANCH  22  23
BRANCH  22  33
ATOM     33  C   LIG    1        0.677  -6.770   5.686  0.00  0.00    -0.020 C 
ATOM     34  C   LIG    1        1.545  -6.949   6.934  0.00  0.00    +0.030 C 
ATOM     35  C   LIG    1        1.327  -5.745   4.755  0.00  0.00    +0.040 C 
ENDBRANCH  22  33
ENDBRANCH   2  22
TORSDOF 7
