REMARK  Name = ZINC000001457101
REMARK                            x       y       z     vdW  Elec       q    Type
REMARK                         _______ _______ _______ _____ _____    ______ ____
ROOT
ATOM      1  N   LIG    1        3.712   1.722   0.184  0.00  0.00    -0.610 N 
ATOM      2  C   LIG    1        4.391   2.041  -0.958  0.00  0.00    +0.540 C 
ATOM      3  C   LIG    1        5.413   3.096  -0.555  0.00  0.00    +0.040 C 
ATOM      4  C   LIG    1        5.664   2.508   0.856  0.00  0.00    -0.070 C 
ATOM      5  C   LIG    1        6.936   2.958   1.508  0.00  0.00    +0.180 C 
ATOM      6  C   LIG    1        7.829   1.916   0.774  0.00  0.00    -0.080 A 
ATOM      7  C   LIG    1        8.727   1.116   1.407  0.00  0.00    +0.030 A 
ATOM      8  C   LIG    1        9.405   0.165   0.649  0.00  0.00    +0.020 A 
ATOM      9  C   LIG    1        9.146   0.050  -0.704  0.00  0.00    +0.000 A 
ATOM     10  C   LIG    1        8.246   0.895  -1.334  0.00  0.00    +0.030 A 
ATOM     11  C   LIG    1        7.611   1.864  -0.590  0.00  0.00    -0.100 A 
ATOM     12  C   LIG    1        7.405   4.233   0.781  0.00  0.00    -0.080 A 
ATOM     13  C   LIG    1        7.842   5.363   1.423  0.00  0.00    +0.030 A 
ATOM     14  C   LIG    1        8.384   6.415   0.697  0.00  0.00    +0.000 A 
ATOM     15  C   LIG    1        8.459   6.356  -0.682  0.00  0.00    +0.000 A 
ATOM     16  C   LIG    1        7.964   5.250  -1.364  0.00  0.00    +0.030 A 
ATOM     17  C   LIG    1        7.418   4.232  -0.637  0.00  0.00    -0.090 A 
ATOM     18  C   LIG    1        6.784   2.977  -1.301  0.00  0.00    +0.150 C 
ATOM     19  O   LIG    1        4.216   1.578  -2.065  0.00  0.00    -0.450 OA
ATOM     20  C   LIG    1        4.329   2.173   1.331  0.00  0.00    +0.570 C 
ATOM     21  O   LIG    1        3.877   2.262   2.452  0.00  0.00    -0.450 OA
ENDROOT
BRANCH   1  22
ATOM     22  C   LIG    1        2.449   0.980   0.188  0.00  0.00    +0.320 C 
BRANCH  22  23
ATOM     23  C   LIG    1        1.280   1.963   0.094  0.00  0.00    +0.100 C 
BRANCH  23  25
ATOM     24  O   LIG    1       -0.011  -0.007   0.169  0.00  0.00    -0.490 OA
ATOM     25  C   LIG    1       -0.020   1.200   0.098  0.00  0.00    +0.470 C 
BRANCH  25  26
ATOM     26  O   LIG    1       -1.186   1.859   0.018  0.00  0.00    -0.280 OA
BRANCH  26  27
ATOM     27  C   LIG    1       -2.314   1.109  -0.086  0.00  0.00    +0.110 A 
ATOM     28  C   LIG    1       -2.951   0.622   1.074  0.00  0.00    +0.120 A 
ATOM     29  N   LIG    1       -2.466   0.887   2.290  0.00  0.00    -0.470 NA
ATOM     30  C   LIG    1       -3.055   0.438   3.371  0.00  0.00    +0.300 A 
ATOM     31  C   LIG    1       -4.212  -0.336   3.308  0.00  0.00    -0.030 A 
ATOM     32  C   LIG    1       -4.761  -0.643   2.096  0.00  0.00    +0.090 A 
ATOM     33  C   LIG    1       -4.126  -0.158   0.937  0.00  0.00    -0.100 A 
ATOM     34  C   LIG    1       -4.632  -0.433  -0.344  0.00  0.00    +0.050 A 
ATOM     35  C   LIG    1       -3.990   0.053  -1.442  0.00  0.00    +0.030 A 
ATOM     36  C   LIG    1       -2.839   0.825  -1.315  0.00  0.00    +0.040 A 
ENDBRANCH  26  27
ENDBRANCH  25  26
ENDBRANCH  23  25
ENDBRANCH  22  23
ENDBRANCH   1  22
TORSDOF 5
